#
# CIF written by cell_write_cif: Keith Refson, Apr 2010
#
data_LTA_CASTEP
_audit_creation_date '02:54:15 (GMT+0.0) 29th November 2012'
_audit_creation_method 'Generated by CASTEP  5.501'

loop_
_symmetry_equiv_pos_as_xyz
 x,y,z
 -x,-y,z
 -x,y,-z
 x,-y,-z
 z,x,y
 z,-x,-y
 -z,-x,y
 -z,x,-y
 y,z,x
 -y,z,-x
 y,-z,-x
 -y,-z,x
 y,x,-z
 -y,-x,-z
 y,-x,z
 -y,x,z
 x,z,-y
 -x,z,y
 -x,-z,-y
 x,-z,y
 z,y,-x
 z,-y,x
 -z,y,x
 -z,-y,-x
 -x,-y,-z
 x,y,-z
 x,-y,z
 -x,y,z
 -z,-x,-y
 -z,x,y
 z,x,-y
 z,-x,y
 -y,-z,-x
 y,-z,x
 -y,z,x
 y,z,-x
 -y,-x,z
 y,x,z
 -y,x,-z
 y,-x,-z
 -x,-z,y
 x,-z,-y
 x,z,y
 -x,z,-y
 -z,-y,x
 -z,y,-x
 z,-y,-x
 z,y,x

_cell_length_a           12.023414845123691
_cell_length_b           12.023414845123691
_cell_length_c           12.023414845123691
_cell_angle_alpha        90.000000000000000
_cell_angle_beta         90.000000000000000
_cell_angle_gamma        90.000000000000000

loop_
_atom_site_label
_atom_site_fract_x
_atom_site_fract_y
_atom_site_fract_z
_atom_site_U_iso_or_equiv
_atom_site_occupancy
O1    -1.220667052947635  1.000000000000000  0.500000000000000 0.0100 1.0000
O13   -0.292509343078465  1.000000000000000  1.292509343078465 0.0100 1.0000
O25   -1.110956438805889  1.110956438805889  0.345757991600433 0.0100 1.0000
Si1   -1.183699077638015  1.000000000000000  0.370366544189800 0.0100 1.0000
